tau_benchmark_results/validation_all_w1.0_20260716_231056.csv
name,n_bus,n_pv,n_pq,pv_ratio,rx_ratio,eta,rho,rho_diag,rho_corr,contraction,nr_converged,nr_iter,nr_time_ms,tpf_converged,tpf_outer_iter,tpf_inner_iter_total,tpf_time_ms,max_v_error,mean_v_error,max_angle_error_deg,max_pv_v_error,speedup,passed,error
sz_75_r000,74,1,73,0.013513513513513514,5.822222222222223,0.27852459450570394,1.7332418111840142,1.7332418933342542,1.7332418111840142,0.23656961527958756,True,4,18.164999999498832,True,7,32,3.333000000566244,9.352315182287185e-07,6.374578846161376e-08,0.0004246565650483092,9.352315182287185e-07,5.450045003424175,True,
sz_75_r005,74,4,70,0.05405405405405406,5.822222222222223,0.6866087219823002,1.9888286489095035,1.9195234965428667,1.9888286489095035,0.2279845079820703,True,4,17.359100000248873,True,7,32,4.746100001284503,7.702218545180273e-07,3.0023383756155127e-07,0.00034439932770480297,7.702218547400719e-07,3.6575504088727033,True,
sz_75_r010,74,8,66,0.10810810810810811,5.822222222222223,0.38079209267142916,1.9815553454049994,1.949262197550793,1.9815553454049994,0.20826171631466664,True,4,17.950800000107847,True,7,32,3.253900000345311,4.5683638894011835e-07,1.9608064046163056e-07,0.0001979065400830038,4.5683638894011835e-07,5.516703032730836,True,
sz_75_r020,74,15,59,0.20270270270270271,5.822222222222223,1.4596172449260172,2.021715363686441,1.9879513241445954,2.021715363686441,0.20031666036077422,True,4,17.387500000040745,True,7,35,3.469999999651918,3.3220988804316676e-07,1.5927373819385022e-07,0.00013523891716538117,3.3220988804316676e-07,5.010806916940898,True,
sz_75_r030,74,22,52,0.2972972972972973,5.822222222222223,4.4374435007715185,2.23266514795892,1.9744441320205421,2.23266514795892,0.5942845175814706,True,6,18.20699999916542,True,18,119,9.945300000254065,8.284794495994063e-07,3.4133549784401945e-07,0.0006925356161042728,8.28479449488384e-07,1.8307140054800055,True,
sz_75_r040,74,30,44,0.40540540540540543,5.822222222222223,2.9854589940494076,2.2182580116104162,2.185179672072743,2.2182580116104162,0.3516659670756098,True,5,18.237500000395812,True,9,50,4.806799999641953,8.238898071555312e-07,4.1860864642958004e-07,0.00041444901698373116,8.238898071555312e-07,3.7941041861018308,True,
sz_75_r050,74,38,36,0.5135135135135135,5.822222222222223,7.231158945942072,2.274082210562346,2.094058275661909,2.274082210562346,0.6352946141433133,True,6,17.33109999986482,True,19,127,11.060700000598445,8.907032489346989e-07,4.827871043995231e-07,0.0008076666083018935,8.906099576710957e-07,1.5669080617797346,True,
sz_75_r060,74,45,29,0.6081081081081081,5.822222222222223,4.548795625656279,2.2119079047762797,2.132026398237899,2.2119079047762797,0.4344165595990047,True,5,17.50709999942046,True,12,72,6.262099999730708,4.884628834744831e-07,2.396916337707519e-07,0.00028066512668489807,4.884138600225185e-07,2.7957234793716688,True,
